*SPEF "1481-1998"
*DESIGN "log2_seq"
*DATE "Sun Apr  5 16:18:58 2026"
*VENDOR "Synopsys, Inc."
*PROGRAM "icc2 /home/synopsys_install/icc2/W-2024.09/linux64/nwtn/bin/icc2_exec"
*VERSION "W-2024.09 Aug 25, 2024"
*DESIGN_FLOW "ICC2 SPEF DR"
*DIVIDER /
*DELIMITER :
*BUS_DELIMITER [ ]
*T_UNIT 1 NS
*C_UNIT 1 FF
*R_UNIT 1 OHM
*L_UNIT 1 HENRY

// XY_UNIT 1 UM
// PARASITIC_TECH p1 at 125.000 degree

*NAME_MAP
*1 clk
*2 X[7]
*3 X[6]
*4 X[5]
*5 X[4]
*6 X[3]
*7 X[2]
*8 X[1]
*9 X[0]
*10 Y[2]
*11 Y[1]
*12 Y[0]
*13 VDD
*14 VSS
*15 Y_reg[1]
*16 Y_reg[0]
*17 Y_reg[2]
*18 U13
*19 U14
*20 ctmTdsLR_1_349
*21 ctmTdsLR_2_350
*22 U19
*23 U20
*24 gre_a_INV_108_inst_352
*25 U22
*26 ctmTdsLR_1_0
*27 tmp_net0
*28 n9
*29 n10
*30 n11
*31 n14
*32 n15
*33 gre_a_INV_108_0
*34 Y_comb[1]
*35 Y_comb[0]

*PORTS

*1 I *C 9.560 16.545
*2 I *C 0.143 10.168
*3 I *C 0.143 7.128
*4 I *C 0.143 12.296
*5 I *C 0.143 5.000
*6 I *C 0.143 14.424
*7 I *C 8.344 16.545
*8 I *C 6.216 16.545
*9 I *C 11.536 16.545
*10 O *C 17.761 7.432
*11 O *C 17.761 10.168
*12 O *C 17.761 5.304
*13 I *C 8.952 8.344
*14 I *C 8.952 8.344

*D_NET *27 0.1811619 //LENGTH 1.987 LUMPCC 0 DR

*CONN
*I *21:Y O *L 0 *C 7.128 7.280
*I *20:A1 I *L 0.564384 *C 7.278 5.636
*N *27:2 *C 7.141 5.608
*N *27:3 *C 7.128 5.622
*N *27:4 *C 7.128 7.267

*CAP
0 *21:Y 0.001
1 *20:A1 0.01462663
2 *27:2 0.01255123
3 *27:3 0.07735675
4 *27:4 0.07562726

*RES
0 *21:Y *27:4 1
1 *27:2 *20:A1 0.2283333
2 *27:3 *27:2 1
3 *27:4 *27:3 2.9375

*END

*D_NET *1 0.8486249 //LENGTH 12.758 LUMPCC 0 DR

*CONN
*P *1 I *L 0 *C 9.560 16.430
*I *15:CLK I *L 0.714381 *C 9.560 11.536
*I *16:CLK I *L 0.714381 *C 9.408 8.496
*I *17:CLK I *L 0.717204 *C 9.408 5.152
*N *1:4 *C 9.408 5.152
*N *1:5 *C 9.408 5.292
*N *1:6 *C 9.408 5.304
*N *1:7 *C 9.548 5.304
*N *1:8 *C 9.560 5.317
*N *1:9 *C 9.408 8.484
*N *1:10 *C 9.408 8.344
*N *1:11 *C 9.408 8.344
*N *1:12 *C 9.548 8.344
*N *1:13 *C 9.560 8.344
*N *1:14 *C 9.378 11.384
*N *1:15 *C 9.560 11.524
*N *1:16 *C 9.560 11.384
*N *1:17 *C 9.548 11.384
*N *1:18 *C 9.560 11.384

*CAP
0 *1 0.1542741
1 *15:CLK 0.001
2 *16:CLK 0.001
3 *17:CLK 0.001
4 *1:4 0.008813511
5 *1:5 0.01024619
6 *1:6 0.008524111
7 *1:7 0.008524657
8 *1:8 0.1096552
9 *1:9 0.01137969
10 *1:10 0.01281236
11 *1:11 0.008376079
12 *1:12 0.008376624
13 *1:13 0.2160568
14 *1:14 0.01056886
15 *1:15 0.006227557
16 *1:16 0.007660235
17 *1:17 0.005824973
18 *1:18 0.258304

*RES
0 *1 *1:18 9.010715
1 *1:17 *1:16 0.5
2 *1:17 *1:14 0.2825
3 *1:18 *1:17 0.5
4 *1:18 *1:13 5.428572
5 *1:16 *1:15 0.2325
6 *1:15 *15:CLK 1
7 *1:12 *1:11 0.2325
8 *1:13 *1:12 0.5
9 *1:13 *1:8 5.404465
10 *1:10 *1:9 0.2325
11 *1:11 *1:10 0.5
12 *1:9 *16:CLK 1
13 *1:7 *1:6 0.2325
14 *1:8 *1:7 0.5
15 *1:5 *1:4 0.2325
16 *1:6 *1:5 0.5
17 *1:4 *17:CLK 1

*END

*D_NET *2 0.9843303 //LENGTH 11.947 LUMPCC 0 DR

*CONN
*P *2 I *L 0 *C 0.258 10.168
*I *21:A I *L 0.604022 *C 6.824 7.432
*I *23:A5 I *L 0.591176 *C 8.952 7.432
*N *2:3 *C 8.952 7.250
*N *2:4 *C 8.952 7.420
*N *2:5 *C 8.939 7.432
*N *2:6 *C 6.838 7.432
*N *2:7 *C 6.824 7.446
*N *2:8 *C 6.824 10.155
*N *2:9 *C 6.811 10.168

*CAP
0 *2 0.220711
1 *21:A 0.001
2 *23:A5 0.001
3 *2:3 0.01315331
4 *2:4 0.006976195
5 *2:5 0.0905548
6 *2:6 0.0905548
7 *2:7 0.1691183
8 *2:8 0.1729232
9 *2:9 0.2183388

*RES
0 *2 *2:9 11.70089
1 *2:7 *21:A 1
2 *2:7 *2:6 0.5
3 *2:6 *2:5 3.751786
4 *2:4 *23:A5 1
5 *2:4 *2:3 0.2825
6 *2:5 *2:4 0.5
7 *2:8 *2:7 4.837501
8 *2:9 *2:8 0.5

*END

*D_NET *3 0.3415609 //LENGTH 5.515 LUMPCC 0 DR

*CONN
*P *3 I *L 0 *C 0.258 7.128
*I *24:A I *L 0.604022 *C 5.304 7.432
*N *3:2 *C 5.304 7.419
*N *3:3 *C 5.304 7.142
*N *3:4 *C 5.291 7.128

*CAP
0 *3 0.152873
1 *24:A 0.001
2 *3:2 0.01787723
3 *3:3 0.0193099
4 *3:4 0.1505008

*RES
0 *3 *3:4 8.986609
1 *3:2 *24:A 1
2 *3:3 *3:2 0.4946429
3 *3:4 *3:3 0.5

*END

*D_NET *4 1.114153 //LENGTH 14.272 LUMPCC 0 DR

*CONN
*P *4 I *L 0 *C 0.258 12.296
*I *23:A2 I *L 0.572777 *C 8.344 7.280
*I *26:A1 I *L 0.610165 *C 5.303 9.256
*N *4:3 *C 5.242 9.256
*N *4:4 *C 5.242 9.256
*N *4:5 *C 5.304 9.256
*N *4:6 *C 5.291 9.256
*N *4:7 *C 8.344 7.294
*N *4:8 *C 8.344 8.939
*N *4:9 *C 8.331 8.952
*N *4:10 *C 5.000 8.952
*N *4:11 *C 5.000 9.256
*N *4:12 *C 5.000 9.270
*N *4:13 *C 5.000 12.283
*N *4:14 *C 4.987 12.296

*CAP
0 *4 0.143903
1 *23:A2 0.001
2 *26:A1 0.0154799
3 *4:3 0.009253701
4 *4:4 0.009576126
5 *4:5 0.001
6 *4:6 0.01538284
7 *4:7 0.1084765
8 *4:8 0.1099092
9 *4:9 0.1316233
10 *4:10 0.1469716
11 *4:11 0.02835886
12 *4:12 0.1258436
13 *4:13 0.1258436
14 *4:14 0.1415308

*RES
0 *4 *4:14 8.44375
1 *4:5 *4:4 0.05636364
2 *4:6 *4:5 0.5
3 *4:3 *26:A1 0.1916667
4 *4:4 *4:3 0.5
5 *4:8 *4:7 2.9375
6 *4:9 *4:8 0.5
7 *4:7 *23:A2 1
8 *4:12 *4:11 0.5
9 *4:11 *4:10 0.5428572
10 *4:11 *4:6 0.5187501
11 *4:13 *4:12 5.380358
12 *4:14 *4:13 0.5
13 *4:10 *4:9 5.947322

*END

*D_NET *5 0.8478935 //LENGTH 11.205 LUMPCC 0 DR

*CONN
*P *5 I *L 0 *C 0.258 5.000
*I *19:A I *L 0.604022 *C 6.064 7.432
*I *26:A2 I *L 0.708348 *C 5.606 9.408
*N *5:3 *C 5.608 9.382
*N *5:4 *C 5.608 9.256
*N *5:5 *C 5.760 9.256
*N *5:6 *C 6.064 7.250
*N *5:7 *C 6.064 7.420
*N *5:8 *C 6.051 7.432
*N *5:9 *C 5.774 7.432
*N *5:10 *C 5.760 7.446
*N *5:11 *C 5.456 7.432
*N *5:12 *C 5.456 5.317
*N *5:13 *C 5.442 5.304
*N *5:14 *C 0.440 5.304
*N *5:15 *C 0.440 5.000

*CAP
0 *5 0.009005585
1 *19:A 0.001
2 *26:A2 0.001
3 *5:3 0.01020393
4 *5:4 0.02339994
5 *5:5 0.1021839
6 *5:6 0.01640004
7 *5:7 0.01022292
8 *5:8 0.01318158
9 *5:9 0.01318158
10 *5:10 0.105169
11 *5:11 0.1090879
12 *5:12 0.09283201
13 *5:13 0.1548066
14 *5:14 0.1671959
15 *5:15 0.01902265

*RES
0 *5 *5:15 0.325
1 *5:10 *5:9 0.5
2 *5:10 *5:5 3.233036
3 *5:9 *5:8 0.4946429
4 *5:7 *19:A 1
5 *5:7 *5:6 0.2825
6 *5:8 *5:7 0.5
7 *5:3 *26:A2 0.5
8 *5:12 *5:11 3.775893
9 *5:13 *5:12 0.5
10 *5:11 *5:10 0.5428572
11 *5:4 *5:3 0.225
12 *5:5 *5:4 0.2714286
13 *5:15 *5:14 0.5428572
14 *5:14 *5:13 8.933036

*END

*D_NET *6 0.9467279 //LENGTH 12.927 LUMPCC 0 DR

*CONN
*P *6 I *L 0 *C 0.258 14.424
*I *22:A1 I *L 0.508226 *C 5.456 10.776
*I *22:A3 I *L 0.560413 *C 6.064 11.080
*I *25:A2 I *L 0.572777 *C 7.128 9.408
*N *6:4 *C 7.128 9.421
*N *6:5 *C 7.128 10.763
*N *6:6 *C 7.115 10.776
*N *6:7 *C 6.064 11.067
*N *6:8 *C 6.064 10.790
*N *6:9 *C 6.064 10.776
*N *6:10 *C 5.456 10.594
*N *6:11 *C 5.456 10.764
*N *6:12 *C 5.456 10.776
*N *6:13 *C 3.798 10.776
*N *6:14 *C 3.784 10.790
*N *6:15 *C 3.784 14.411
*N *6:16 *C 3.771 14.424

*CAP
0 *6 0.1018805
1 *22:A1 0.001
2 *22:A3 0.001
3 *25:A2 0.001
4 *6:4 0.0814122
5 *6:5 0.08284488
6 *6:6 0.04418249
7 *6:7 0.02033246
8 *6:8 0.02176514
9 *6:9 0.06870722
10 *6:10 0.01348119
11 *6:11 0.007304078
12 *6:12 0.08487905
13 *6:13 0.06035431
14 *6:14 0.1285381
15 *6:15 0.1285381
16 *6:16 0.09950829

*RES
0 *6 *6:16 6.272322
1 *6:5 *6:4 2.394643
2 *6:6 *6:5 0.5
3 *6:4 *25:A2 1
4 *6:8 *6:7 0.4946429
5 *6:9 *6:8 0.5
6 *6:9 *6:6 1.875893
7 *6:7 *22:A3 1
8 *6:11 *22:A1 1
9 *6:11 *6:10 0.2825
10 *6:12 *6:11 0.5
11 *6:12 *6:9 1.085714
12 *6:14 *6:13 0.5
13 *6:13 *6:12 2.961607
14 *6:15 *6:14 6.466072
15 *6:16 *6:15 0.5

*END

*D_NET *7 0.7287676 //LENGTH 8.929 LUMPCC 0 DR

*CONN
*P *7 I *L 0 *C 8.344 16.430
*I *18:A I *L 0.604022 *C 7.736 10.776
*I *25:A4 I *L 0.587656 *C 7.280 8.952
*N *7:3 *C 7.280 8.966
*N *7:4 *C 7.280 10.472
*N *7:5 *C 7.736 10.472
*N *7:6 *C 7.736 10.763
*N *7:7 *C 7.750 10.776
*N *7:8 *C 8.331 10.776
*N *7:9 *C 8.344 10.790

*CAP
0 *7 0.2015675
1 *18:A 0.001
2 *25:A4 0.001
3 *7:3 0.09926862
4 *7:4 0.1247225
5 *7:5 0.0396452
6 *7:6 0.01181909
7 *7:7 0.02527467
8 *7:8 0.02527467
9 *7:9 0.1991953

*RES
0 *7 *7:9 10.07232
1 *7:6 *18:A 1
2 *7:6 *7:5 0.5187501
3 *7:7 *7:6 0.5
4 *7:9 *7:8 0.5
5 *7:8 *7:7 1.0375
6 *7:3 *25:A4 1
7 *7:4 *7:3 2.690179
8 *7:5 *7:4 0.8142858

*END

*D_NET *8 0.4154046 //LENGTH 5.740 LUMPCC 0 DR

*CONN
*P *8 I *L 0 *C 6.216 16.430
*I *22:A2 I *L 0.531765 *C 5.700 11.536
*N *8:2 *C 5.897 11.536
*N *8:3 *C 5.912 11.550
*N *8:4 *C 5.912 13.195
*N *8:5 *C 5.926 13.208
*N *8:6 *C 6.203 13.208
*N *8:7 *C 6.216 13.222

*CAP
0 *8 0.1138248
1 *22:A2 0.01976371
2 *8:2 0.01768831
3 *8:3 0.06591336
4 *8:4 0.06561654
5 *8:5 0.01057263
6 *8:6 0.01057263
7 *8:7 0.1114526

*RES
0 *8 *8:7 5.729465
1 *8:2 *22:A2 0.3940001
2 *8:3 *8:2 1
3 *8:4 *8:3 2.9375
4 *8:5 *8:4 0.5
5 *8:7 *8:6 0.5
6 *8:6 *8:5 0.4946429

*END

*D_NET *10 0.4738069 //LENGTH 7.212 LUMPCC 0 DR

*CONN
*I *17:Q O *L 0 *C 12.478 5.618
*P *10 O *L 0 *C 17.646 7.432
*N *10:2 *C 12.918 7.432
*N *10:3 *C 12.904 7.419
*N *10:4 *C 12.904 5.622
*N *10:5 *C 12.889 5.608

*CAP
0 *17:Q 0.02661213
1 *10 0.1403869
2 *10:2 0.1380147
3 *10:3 0.07197984
4 *10:4 0.07227665
5 *10:5 0.02453673

*RES
0 *17:Q *10:5 0.8220001
1 *10:5 *10:4 1
2 *10:4 *10:3 3.208929
3 *10:3 *10:2 0.5
4 *10:2 *10 8.44375

*END

*D_NET *11 0.3671562 //LENGTH 6.123 LUMPCC 0 DR

*CONN
*I *15:Q O *L 0 *C 12.600 11.080
*P *11 O *L 0 *C 17.646 10.168
*N *11:2 *C 12.614 10.168
*N *11:3 *C 12.600 10.181
*N *11:4 *C 12.600 11.067

*CAP
0 *15:Q 0.001
1 *11 0.1476223
2 *11:2 0.1452501
3 *11:3 0.03735823
4 *11:4 0.03592555

*RES
0 *15:Q *11:4 1
1 *11:4 *11:3 1.580357
2 *11:3 *11:2 0.5
3 *11:2 *11 8.986608

*END

*D_NET *12 0.5917213 //LENGTH 9.011 LUMPCC 0 DR

*CONN
*I *16:Q O *L 0 *C 12.448 8.952
*P *12 O *L 0 *C 17.646 5.304
*N *12:2 *C 12.462 5.304
*N *12:3 *C 12.448 5.317
*N *12:4 *C 12.448 8.939

*CAP
0 *16:Q 0.001
1 *12 0.1544203
2 *12:2 0.152048
3 *12:3 0.1428428
4 *12:4 0.1414101

*RES
0 *16:Q *12:4 1
1 *12:4 *12:3 6.466072
2 *12:3 *12:2 0.5
3 *12:2 *12 9.258036

*END

*D_NET *28 0.3645008 //LENGTH 3.718 LUMPCC 0 DR

*CONN
*I *19:Y O *L 0 *C 6.368 7.280
*I *22:A5 I *L 0.553485 *C 6.216 10.624
*N *28:2 *C 6.216 10.611
*N *28:3 *C 6.216 8.040
*N *28:4 *C 6.368 8.040
*N *28:5 *C 6.368 7.294

*CAP
0 *19:Y 0.001
1 *22:A5 0.001
2 *28:2 0.1330974
3 *28:3 0.1459699
4 *28:4 0.04815299
5 *28:5 0.03528053

*RES
0 *19:Y *28:5 1
1 *28:2 *22:A5 1
2 *28:5 *28:4 1.333036
3 *28:3 *28:2 4.590179
4 *28:4 *28:3 0.2714286

*END

*D_NET *29 0.2223892 //LENGTH 2.615 LUMPCC 0 DR

*CONN
*I *18:Y O *L 0 *C 7.432 10.624
*I *22:A4 I *L 0.525957 *C 5.760 10.928
*N *29:2 *C 5.760 10.928
*N *29:3 *C 5.760 11.068
*N *29:4 *C 5.774 11.080
*N *29:5 *C 7.419 11.080
*N *29:6 *C 7.432 11.067
*N *29:7 *C 7.432 10.638

*CAP
0 *18:Y 0.001
1 *22:A4 0.001
2 *29:2 0.008674285
3 *29:3 0.01010696
4 *29:4 0.0724095
5 *29:5 0.0724095
6 *29:6 0.02911083
7 *29:7 0.02767815

*RES
0 *18:Y *29:7 1
1 *29:2 *22:A4 1
2 *29:3 *29:2 0.2325
3 *29:4 *29:3 0.5
4 *29:6 *29:5 0.5
5 *29:5 *29:4 2.9375
6 *29:7 *29:6 0.7660714

*END

*D_NET *30 0.5553296 //LENGTH 5.230 LUMPCC 0 DR

*CONN
*I *22:Y O *L 0 *C 6.824 10.472
*I *23:A4 I *L 0.587656 *C 8.466 7.736
*N *30:2 *C 8.192 7.554
*N *30:3 *C 8.207 7.736
*N *30:4 *C 8.192 7.724
*N *30:5 *C 8.178 7.736
*N *30:6 *C 6.686 7.736
*N *30:7 *C 6.672 7.750
*N *30:8 *C 6.672 10.472
*N *30:9 *C 6.823 10.472

*CAP
0 *22:Y 0.001
1 *23:A4 0.02377504
2 *30:2 0.01614936
3 *30:3 0.02169964
4 *30:4 0.01170174
5 *30:5 0.06518685
6 *30:6 0.06518685
7 *30:7 0.1671519
8 *30:8 0.1784036
9 *30:9 0.005074575

*RES
0 *22:Y *30:9 1
1 *30:3 *23:A4 0.5180001
2 *30:4 *30:3 1
3 *30:4 *30:2 0.2825
4 *30:5 *30:4 0.5
5 *30:7 *30:6 0.5
6 *30:6 *30:5 2.666072
7 *30:9 *30:8 0.2696429
8 *30:8 *30:7 4.861608

*END

*D_NET *31 0.8484229 //LENGTH 8.265 LUMPCC 0 DR

*CONN
*I *26:Y O *L 0 *C 6.368 9.560
*I *25:A3 I *L 0.545782 *C 7.432 9.864
*I *25:A1 I *L 0.556934 *C 6.976 9.104
*I *17:SETB I *L 0.55078 *C 8.496 5.912
*N *31:4 *C 8.496 5.926
*N *31:5 *C 8.496 9.851
*N *31:6 *C 8.482 9.864
*N *31:7 *C 6.976 9.104
*N *31:8 *C 6.976 9.244
*N *31:9 *C 6.990 9.256
*N *31:10 *C 7.419 9.256
*N *31:11 *C 7.432 9.270
*N *31:12 *C 7.432 9.851
*N *31:13 *C 7.432 9.864
*N *31:14 *C 6.381 9.864
*N *31:15 *C 6.368 9.851
*N *31:16 *C 6.368 9.574

*CAP
0 *26:Y 0.001
1 *25:A3 0.001
2 *25:A1 0.001
3 *17:SETB 0.001
4 *31:4 0.2296269
5 *31:5 0.2310596
6 *31:6 0.04633683
7 *31:7 0.01414969
8 *31:8 0.01558237
9 *31:9 0.02281397
10 *31:10 0.02281397
11 *31:11 0.03825199
12 *31:12 0.0344471
13 *31:13 0.09689087
14 *31:14 0.04818181
15 *31:15 0.02285023
16 *31:16 0.02141755

*RES
0 *26:Y *31:16 1
1 *31:5 *31:4 7.008929
2 *31:6 *31:5 0.5
3 *31:4 *17:SETB 1
4 *31:12 *25:A3 1
5 *31:12 *31:11 1.0375
6 *31:13 *31:12 0.5
7 *31:13 *31:6 1.875893
8 *31:11 *31:10 0.5
9 *31:10 *31:9 0.7660714
10 *31:8 *31:7 0.2325
11 *31:9 *31:8 0.5
12 *31:7 *25:A1 1
13 *31:15 *31:14 0.5
14 *31:14 *31:13 1.875893
15 *31:16 *31:15 0.4946429

*END

*D_NET *32 0.5722532 //LENGTH 6.371 LUMPCC 0 DR

*CONN
*I *20:Y O *L 0 *C 7.450 5.760
*I *17:D I *L 0.614209 *C 9.256 5.760
*I *25:A5 I *L 0.591176 *C 7.736 9.256
*N *32:3 *C 7.736 9.242
*N *32:4 *C 7.736 8.344
*N *32:5 *C 7.584 8.344
*N *32:6 *C 9.256 5.748
*N *32:7 *C 9.256 5.608
*N *32:8 *C 9.242 5.608
*N *32:9 *C 7.598 5.608
*N *32:10 *C 7.584 5.620
*N *32:11 *C 7.584 5.774
*N *32:12 *C 7.572 5.760

*CAP
0 *20:Y 0.01582013
1 *17:D 0.001
2 *25:A5 0.001
3 *32:3 0.04256991
4 *32:4 0.0546367
5 *32:5 0.1465669
6 *32:6 0.008990402
7 *32:7 0.01042308
8 *32:8 0.0615068
9 *32:9 0.0615068
10 *32:10 0.007942908
11 *32:11 0.1465448
12 *32:12 0.01374473

*RES
0 *20:Y *32:12 0.2033333
1 *32:3 *25:A5 1
2 *32:10 *32:9 0.5
3 *32:9 *32:8 2.9375
4 *32:7 *32:6 0.2325
5 *32:8 *32:7 0.5
6 *32:6 *17:D 1
7 *32:12 *32:11 1
8 *32:11 *32:10 0.255
9 *32:11 *32:5 4.590179
10 *32:5 *32:4 0.2714286
11 *32:4 *32:3 1.604464

*END

*D_NET *33 0.7637059 //LENGTH 7.602 LUMPCC 0 DR

*CONN
*I *24:Y O *L 0 *C 5.638 7.282
*I *23:A1 I *L 0.556934 *C 8.162 7.584
*I *23:A3 I *L 0.545782 *C 8.648 6.824
*I *20:A2 I *L 0.483357 *C 7.103 5.937
*N *33:4 *C 8.648 7.006
*N *33:5 *C 8.648 6.837
*N *33:6 *C 8.635 6.824
*N *33:7 *C 7.751 7.584
*N *33:8 *C 7.736 7.571
*N *33:9 *C 7.736 6.838
*N *33:10 *C 7.736 6.824
*N *33:11 *C 6.838 6.824
*N *33:12 *C 6.824 6.811
*N *33:13 *C 6.824 5.926
*N *33:14 *C 6.824 5.912
*N *33:15 *C 5.927 5.912
*N *33:16 *C 5.912 5.926
*N *33:17 *C 5.912 7.267
*N *33:18 *C 5.897 7.280

*CAP
0 *24:Y 0.02548073
1 *23:A1 0.02983939
2 *23:A3 0.001
3 *20:A2 0.01728607
4 *33:4 0.01801514
5 *33:5 0.01183802
6 *33:6 0.03975974
7 *33:7 0.027764
8 *33:8 0.0512252
9 *33:9 0.05092838
10 *33:10 0.08152138
11 *33:11 0.03938942
12 *33:12 0.04409295
13 *33:13 0.04438977
14 *33:14 0.0696133
15 *33:15 0.04574641
16 *33:16 0.07120539
17 *33:17 0.07120539
18 *33:18 0.02340533

*RES
0 *24:Y *33:18 0.5180001
1 *33:5 *23:A3 1
2 *33:5 *33:4 0.2825
3 *33:6 *33:5 0.5
4 *33:9 *33:8 1.308929
5 *33:10 *33:9 0.5
6 *33:10 *33:6 1.604464
7 *33:7 *23:A1 0.822
8 *33:8 *33:7 1
9 *33:12 *33:11 0.5
10 *33:11 *33:10 1.604464
11 *33:14 *33:13 1
12 *33:14 *20:A2 0.5580001
13 *33:13 *33:12 1.580357
14 *33:15 *33:14 1.794
15 *33:16 *33:15 1
16 *33:18 *33:17 1
17 *33:17 *33:16 2.394643

*END

*D_NET *34 0.2878616 //LENGTH 3.048 LUMPCC 0 DR

*CONN
*I *25:Y O *L 0 *C 8.222 8.800
*I *15:D I *L 0.558146 *C 9.226 10.624
*N *34:2 *C 8.815 10.624
*N *34:3 *C 8.800 10.611
*N *34:4 *C 8.800 8.814
*N *34:5 *C 8.785 8.800

*CAP
0 *25:Y 0.03539648
1 *15:D 0.02740123
2 *34:2 0.02532584
3 *34:3 0.08320847
4 *34:4 0.08320847
5 *34:5 0.03332108

*RES
0 *25:Y *34:5 1.126
1 *34:2 *15:D 0.8220001
2 *34:3 *34:2 1
3 *34:5 *34:4 1
4 *34:4 *34:3 3.208929

*END

*D_NET *35 0.2206238 //LENGTH 2.500 LUMPCC 0 DR

*CONN
*I *23:Y O *L 0 *C 9.421 7.888
*I *16:D I *L 0.558146 *C 9.104 9.408
*N *35:2 *C 9.104 9.395
*N *35:3 *C 9.104 8.966
*N *35:4 *C 9.117 8.952
*N *35:5 *C 9.546 8.952
*N *35:6 *C 9.560 8.939
*N *35:7 *C 9.560 7.902
*N *35:8 *C 9.548 7.888

*CAP
0 *23:Y 0.01666212
1 *16:D 0.001
2 *35:2 0.0224826
3 *35:3 0.02391528
4 *35:4 0.01858426
5 *35:5 0.01858426
6 *35:6 0.05225584
7 *35:7 0.05255266
8 *35:8 0.01458672

*RES
0 *23:Y *35:8 0.2116667
1 *35:2 *16:D 1
2 *35:3 *35:2 0.7660714
3 *35:4 *35:3 0.5
4 *35:6 *35:5 0.5
5 *35:5 *35:4 0.7660714
6 *35:8 *35:7 1
7 *35:7 *35:6 1.851786

*END

